
**** 03/22/22 14:17:59 ******* PSpice 17.4.0 (Nov 2018) ******* ID# 0 ********

 ** Profile: "SCHEMATIC1-TRANSIENT"  [ D:\redmine_svn\cordia\ADC_01\pcb\sim\FDA-PSpiceFiles\SCHEMATIC1\TRANSIENT.sim ] 


 ****     CIRCUIT DESCRIPTION


******************************************************************************




** Creating circuit file "TRANSIENT.cir" 
** WARNING: THIS AUTOMATICALLY GENERATED FILE MAY BE OVERWRITTEN BY SUBSEQUENT SIMULATIONS

*Libraries: 
* Profile Libraries :
* Local Libraries :
* From [PSPICE NETLIST] section of C:\cds_spb_home\cdssetup\OrCAD_PSpiceTIPSpice_Install\17.4.0\PSpice.ini file:
.lib "nom_pspti.lib" 
.lib "nom.lib" 

*Analysis directives: 
.TRAN  0 100u 0 1n 
.STEP Rx LIST 1k 1.1k 
------$
ERROR(ORPSIM-16063): Must be 'I' or 'V'
.OPTIONS ADVCONV
.OPTIONS FILEMODELSEARCH
.PROBE64 V(alias(*)) I(alias(*)) W(alias(*)) D(alias(*)) NOISE(alias(*)) 
.INC "..\SCHEMATIC1.net" 



**** INCLUDING SCHEMATIC1.net ****
* source FDA
X_U1         N14498 N14502 N14395 0 OUT_N OUT_P N14639 THS4520 
V_V1         N14395 0 5V
R_R1         IN_P N14498  1k TC=0,0 
R_R2         N14498 OUT_N  1k TC=0,0 
R_R3         IN_N N14502  1k TC=0,0 
R_R4         N14502 OUT_P  {Rx} TC=0,0 
V_V2         N14639 0 1.2V
V_V4         IN_P 0  AC 0
+SIN 1.2 1 1Meg 0 0 0
V_V5         IN_N 0 1.2V
.PARAM  rx=1k

**** RESUMING TRANSIENT.cir ****
.END
